Circuit: * D:\Google Drive\CE\CSOS\SPICE\CSOS.asc

Direct Newton iteration failed to find .op point.  (Use ".option noopiter" to skip.)
Starting Gmin stepping
Gmin = 10
Gmin = 1.07374
Gmin = 0.115292
Gmin = 0.0123794
Gmin = 0.00132923
Gmin = 0.000142725
Gmin = 1.5325e-005
Gmin = 1.6455e-006
vernier = 0.5
Gmin = 3.40827e-007
vernier = 0.25
vernier = 0.125
vernier = 0.0625
Gmin = 3.49453e-007
vernier = 0.0833333
vernier = 0.111111
Gmin = 2.80046e-007
vernier = 0.148148
vernier = 0.197531
Gmin = 1.9762e-007
vernier = 0.263374
Gmin = 1.129e-007
vernier = 0.351165
vernier = 0.46822
Gmin = 4.58674e-008
vernier = 0.624294
vernier = 0.832392
Gmin = 1.14095e-008
vernier = 1
Gmin = 1.4528e-009
Gmin = 1.55993e-010
Gmin = 1.67496e-011
Gmin = 1.79848e-012
Gmin = 1.9311e-013
Gmin = 0
Gmin stepping succeeded in finding the operating point.


Date: Mon May 23 21:51:30 2016
Total elapsed time: 0.176 seconds.

tnom = 27
temp = 27
method = modified trap
totiter = 3658
traniter = 2681
tranpoints = 1223
accept = 1170
rejected = 53
matrix size = 24
fillins = 19
solver = Normal
Matrix Compiler1: 1.70 KB object code size  0.6/0.4/[0.2]
Matrix Compiler2: off  [0.5]/0.7/0.7


